{
    "@context": {
        "type": "@type",
        "id": "@id",
        "gs1": "https://ref.gs1.org/voc/",
        "gs1:harvestDateStart": {
            "@type": "xsd:date"
        },
        "gs1:harvestDateEnd": {
            "@type": "xsd:date"
        },
        "gs1:bestBeforeDate": {
            "@type": "xsd:date"
        },
        "gs1:freshOrSeawaterFarmed": {
            "@type": "@vocab"
        }
    },
    "type": "gs1:Seafood",
    "id": "https://id.gs1.de/01/04012345999853/10/LOT987",
    "gs1:gtin": "04012345999853",
    "gs1:hasBatchLotNumber": "LOT987",
    "gs1:catchZone": "37.2",
    "gs1:freshOrSeawaterFarmed": "gs1:FreshOrSeawaterFarmedCode-SEAWATER_FARMED",
    "gs1:harvestDateStart": "2025-02-09",
    "gs1:harvestDateEnd": "2025-02-10",
    "gs1:bestBeforeDate": "2025-02-15"
}